@<TRIPOS>MOLECULE
MOL
   60    59     1     0     0
SMALL
resp


@<TRIPOS>ATOM
      1 C1         24.1200   -8.9930    2.8170 c3        1 MOL     -0.139343
      2 C2         23.2010   -8.9500    1.6380 c2        1 MOL     -0.169363
      3 C3         23.5060   -9.1670    0.3490 c2        1 MOL     -0.036943
      4 C4         24.8790   -9.5420   -0.1570 c3        1 MOL     -0.032783
      5 C5         22.4350   -9.0230   -0.7150 c3        1 MOL     -0.196902
      6 C6         22.6470   -7.8270   -1.6660 c3        1 MOL      0.045134
      7 C7         21.5230   -7.6990   -2.7040 c3        1 MOL     -0.048560
      8 C8         21.7130   -6.5800   -3.7500 c3        1 MOL      0.062686
      9 C9         21.7090   -5.1850   -3.1040 c3        1 MOL     -0.138904
     10 C10        20.6420   -6.7070   -4.8540 c3        1 MOL     -0.026219
     11 C11        20.8150   -5.7710   -6.0600 c3        1 MOL      0.028059
     12 C12        19.7900   -6.0480   -7.1690 c3        1 MOL     -0.081610
     13 C13        19.8170   -5.0650   -8.3590 c3        1 MOL      0.096308
     14 C14        21.1530   -5.1210   -9.1170 c3        1 MOL     -0.196244
     15 C15        18.6140   -5.3290   -9.2890 c3        1 MOL     -0.077803
     16 C16        18.3940   -4.2890  -10.3980 c3        1 MOL      0.008079
     17 C17        17.1200   -4.5570  -11.2130 c3        1 MOL     -0.096619
     18 C18        16.7880   -3.5030  -12.2890 c3        1 MOL      0.246728
     19 C19        17.8490   -3.4350  -13.3970 c3        1 MOL     -0.278637
     20 C20        15.4000   -3.7700  -12.8900 c3        1 MOL     -0.278637
     21 H1         25.1230   -9.3570    2.5810 hc        1 MOL      0.055223
     22 H2         24.2350   -8.0030    3.2760 hc        1 MOL      0.055223
     23 H3         22.1730   -8.6880    1.8890 ha        1 MOL      0.119085
     24 H4         25.5780   -9.7970    0.6420 hc        1 MOL      0.032175
     25 H5         25.3270   -8.7250   -0.7370 hc        1 MOL      0.032175
     26 H6         24.8120  -10.4040   -0.8340 hc        1 MOL      0.032175
     27 H7         21.4540   -8.9230   -0.2340 hc        1 MOL      0.060889
     28 H8         22.3970   -9.9460   -1.3150 hc        1 MOL      0.060889
     29 H9         23.6080   -7.9320   -2.1890 hc        1 MOL      0.018859
     30 H10        22.7200   -6.9130   -1.0630 hc        1 MOL      0.018859
     31 H11        20.5640   -7.5440   -2.1850 hc        1 MOL      0.015973
     32 H12        21.4280   -8.6580   -3.2340 hc        1 MOL      0.015973
     33 H13        22.6970   -6.7320   -4.2230 hc        1 MOL      0.003658
     34 H14        22.4880   -5.0880   -2.3400 hc        1 MOL      0.028485
     35 H15        20.7430   -4.9840   -2.6220 hc        1 MOL      0.028485
     36 H16        21.8820   -4.3960   -3.8440 hc        1 MOL      0.028485
     37 H17        19.6480   -6.5450   -4.4080 hc        1 MOL      0.003414
     38 H18        20.6420   -7.7460   -5.2180 hc        1 MOL      0.003414
     39 H19        21.8360   -5.8820   -6.4520 hc        1 MOL      0.002537
     40 H20        20.7200   -4.7240   -5.7420 hc        1 MOL      0.002537
     41 H21        18.7840   -6.0270   -6.7250 hc        1 MOL      0.017055
     42 H22        19.9310   -7.0730   -7.5470 hc        1 MOL      0.017055
     43 H23        19.7020   -4.0480   -7.9490 hc        1 MOL      0.010549
     44 H24        21.3160   -6.1200   -9.5430 hc        1 MOL      0.046839
     45 H25        22.0010   -4.8970   -8.4610 hc        1 MOL      0.046839
     46 H26        21.1840   -4.4000   -9.9400 hc        1 MOL      0.046839
     47 H27        17.7040   -5.3790   -8.6740 hc        1 MOL      0.021939
     48 H28        18.7260   -6.3250   -9.7440 hc        1 MOL      0.021939
     49 H29        19.2630   -4.2680  -11.0670 hc        1 MOL      0.007312
     50 H30        18.3290   -3.2870   -9.9460 hc        1 MOL      0.007312
     51 H31        16.2700   -4.6270  -10.5200 hc        1 MOL      0.021068
     52 H32        17.1980   -5.5450  -11.6950 hc        1 MOL      0.021068
     53 H33        16.7550   -2.5210  -11.7920 hc        1 MOL     -0.017239
     54 H34        17.9410   -4.4030  -13.9090 hc        1 MOL      0.061543
     55 H35        18.8370   -3.1690  -13.0080 hc        1 MOL      0.061543
     56 H36        17.5800   -2.6860  -14.1520 hc        1 MOL      0.061543
     57 H37        14.6220   -3.7740  -12.1170 hc        1 MOL      0.061543
     58 H38        15.3720   -4.7450  -13.3950 hc        1 MOL      0.061543
     59 H39        15.1320   -3.0060  -13.6310 hc        1 MOL      0.061543
     60 H40        23.6800   -9.6420    3.5440 hc        1 MOL      0.055223
@<TRIPOS>BOND
     1    1    2 1   
     2    1   21 1   
     3    1   22 1   
     4    1   60 1   
     5    2    3 2   
     6    2   23 1   
     7    3    4 1   
     8    3    5 1   
     9    4   24 1   
    10    4   25 1   
    11    4   26 1   
    12    5    6 1   
    13    5   27 1   
    14    5   28 1   
    15    6    7 1   
    16    6   29 1   
    17    6   30 1   
    18    7    8 1   
    19    7   31 1   
    20    7   32 1   
    21    8    9 1   
    22    8   10 1   
    23    8   33 1   
    24    9   34 1   
    25    9   35 1   
    26    9   36 1   
    27   10   11 1   
    28   10   37 1   
    29   10   38 1   
    30   11   12 1   
    31   11   39 1   
    32   11   40 1   
    33   12   13 1   
    34   12   41 1   
    35   12   42 1   
    36   13   14 1   
    37   13   15 1   
    38   13   43 1   
    39   14   44 1   
    40   14   45 1   
    41   14   46 1   
    42   15   16 1   
    43   15   47 1   
    44   15   48 1   
    45   16   17 1   
    46   16   49 1   
    47   16   50 1   
    48   17   18 1   
    49   17   51 1   
    50   17   52 1   
    51   18   19 1   
    52   18   20 1   
    53   18   53 1   
    54   19   54 1   
    55   19   55 1   
    56   19   56 1   
    57   20   57 1   
    58   20   58 1   
    59   20   59 1   
@<TRIPOS>SUBSTRUCTURE
     1 MOL         1 TEMP              0 ****  ****    0 ROOT
